10133
  -OEChem-02232406293D

 68 71  0     1  0  0  0  0  0999 V2000
   -2.2896    2.2896    1.1329 O   0  0  0  0  0  0  0  0  0  0  0  0
   -5.8692   -0.9070    2.3628 O   0  0  0  0  0  0  0  0  0  0  0  0
    7.4191   -1.2919   -0.5923 O   0  0  0  0  0  0  0  0  0  0  0  0
    6.4579    0.7449   -0.8820 O   0  0  0  0  0  0  0  0  0  0  0  0
    0.1029    1.0201    0.1893 C   0  0  2  0  0  0  0  0  0  0  0  0
    1.0947   -0.1011   -0.1877 C   0  0  1  0  0  0  0  0  0  0  0  0
   -1.2183    0.9436   -0.5905 C   0  0  1  0  0  0  0  0  0  0  0  0
   -1.8961   -0.4362   -0.2900 C   0  0  1  0  0  0  0  0  0  0  0  0
   -3.2643   -0.5935   -1.0572 C   0  0  2  0  0  0  0  0  0  0  0  0
    2.2896    0.3140    0.7057 C   0  0  2  0  0  0  0  0  0  0  0  0
   -4.2036    0.6035   -0.6900 C   0  0  2  0  0  0  0  0  0  0  0  0
    0.4464   -1.4389    0.1895 C   0  0  0  0  0  0  0  0  0  0  0  0
   -0.9164   -1.6244   -0.5006 C   0  0  0  0  0  0  0  0  0  0  0  0
   -2.1535    2.1264   -0.2755 C   0  0  1  0  0  0  0  0  0  0  0  0
    0.9434    2.2901    0.0892 C   0  0  0  0  0  0  0  0  0  0  0  0
    2.3454    1.8516    0.5504 C   0  0  0  0  0  0  0  0  0  0  0  0
   -3.5316    1.9716   -0.9250 C   0  0  0  0  0  0  0  0  0  0  0  0
   -3.9948   -1.9254   -0.7133 C   0  0  0  0  0  0  0  0  0  0  0  0
    1.4967   -0.1180   -1.6835 C   0  0  0  0  0  0  0  0  0  0  0  0
    3.6237   -0.3590    0.4169 C   0  0  1  0  0  0  0  0  0  0  0  0
   -4.7745    0.5021    0.7403 C   0  0  0  0  0  0  0  0  0  0  0  0
   -3.0453   -0.6179   -2.5939 C   0  0  0  0  0  0  0  0  0  0  0  0
   -4.5198   -1.9962    0.7141 C   0  0  0  0  0  0  0  0  0  0  0  0
   -5.4614   -0.8348    1.0006 C   0  0  1  0  0  0  0  0  0  0  0  0
    4.7126    0.1934    1.3594 C   0  0  0  0  0  0  0  0  0  0  0  0
    3.4804   -1.8802    0.5334 C   0  0  0  0  0  0  0  0  0  0  0  0
    6.0756   -0.4801    1.1880 C   0  0  0  0  0  0  0  0  0  0  0  0
    6.6501   -0.2459   -0.1911 C   0  0  0  0  0  0  0  0  0  0  0  0
   -0.1462    0.9000    1.2567 H   0  0  0  0  0  0  0  0  0  0  0  0
   -0.9930    1.0044   -1.6598 H   0  0  0  0  0  0  0  0  0  0  0  0
   -2.1194   -0.4416    0.7858 H   0  0  0  0  0  0  0  0  0  0  0  0
    2.0232    0.1069    1.7540 H   0  0  0  0  0  0  0  0  0  0  0  0
   -5.0740    0.5656   -1.3621 H   0  0  0  0  0  0  0  0  0  0  0  0
    0.2986   -1.4951    1.2757 H   0  0  0  0  0  0  0  0  0  0  0  0
    1.0447   -2.3056   -0.0881 H   0  0  0  0  0  0  0  0  0  0  0  0
   -0.7533   -1.8001   -1.5682 H   0  0  0  0  0  0  0  0  0  0  0  0
   -1.3593   -2.5434   -0.1011 H   0  0  0  0  0  0  0  0  0  0  0  0
   -1.7105    3.0551   -0.6556 H   0  0  0  0  0  0  0  0  0  0  0  0
    0.5585    3.0980    0.7184 H   0  0  0  0  0  0  0  0  0  0  0  0
    0.9811    2.6641   -0.9401 H   0  0  0  0  0  0  0  0  0  0  0  0
    3.0875    2.1695   -0.1909 H   0  0  0  0  0  0  0  0  0  0  0  0
    2.6046    2.3264    1.5033 H   0  0  0  0  0  0  0  0  0  0  0  0
   -3.4270    2.1311   -2.0052 H   0  0  0  0  0  0  0  0  0  0  0  0
   -4.1972    2.7641   -0.5603 H   0  0  0  0  0  0  0  0  0  0  0  0
   -3.3530   -2.7907   -0.9103 H   0  0  0  0  0  0  0  0  0  0  0  0
   -4.8544   -2.0452   -1.3883 H   0  0  0  0  0  0  0  0  0  0  0  0
    0.6346   -0.2107   -2.3494 H   0  0  0  0  0  0  0  0  0  0  0  0
    2.0261    0.7920   -1.9830 H   0  0  0  0  0  0  0  0  0  0  0  0
    2.1509   -0.9633   -1.9171 H   0  0  0  0  0  0  0  0  0  0  0  0
    3.9353   -0.1330   -0.6094 H   0  0  0  0  0  0  0  0  0  0  0  0
   -3.9969    0.6457    1.4967 H   0  0  0  0  0  0  0  0  0  0  0  0
   -5.4950    1.3119    0.9135 H   0  0  0  0  0  0  0  0  0  0  0  0
   -4.0058   -0.6484   -3.1224 H   0  0  0  0  0  0  0  0  0  0  0  0
   -2.5099    0.2584   -2.9661 H   0  0  0  0  0  0  0  0  0  0  0  0
   -2.4851   -1.5049   -2.9069 H   0  0  0  0  0  0  0  0  0  0  0  0
   -5.0523   -2.9430    0.8674 H   0  0  0  0  0  0  0  0  0  0  0  0
   -3.6916   -2.0096    1.4327 H   0  0  0  0  0  0  0  0  0  0  0  0
   -6.3619   -0.9186    0.3819 H   0  0  0  0  0  0  0  0  0  0  0  0
    4.8358    1.2717    1.2047 H   0  0  0  0  0  0  0  0  0  0  0  0
    4.3955    0.0605    2.4016 H   0  0  0  0  0  0  0  0  0  0  0  0
   -1.4780    2.7008    1.4721 H   0  0  0  0  0  0  0  0  0  0  0  0
    2.9475   -2.1739    1.4433 H   0  0  0  0  0  0  0  0  0  0  0  0
    2.9867   -2.3012   -0.3430 H   0  0  0  0  0  0  0  0  0  0  0  0
    4.4427   -2.3956    0.5437 H   0  0  0  0  0  0  0  0  0  0  0  0
   -5.0762   -0.8293    2.9202 H   0  0  0  0  0  0  0  0  0  0  0  0
    6.7825   -0.0361    1.8995 H   0  0  0  0  0  0  0  0  0  0  0  0
    6.0434   -1.5476    1.4167 H   0  0  0  0  0  0  0  0  0  0  0  0
    7.7917   -1.1487   -1.4884 H   0  0  0  0  0  0  0  0  0  0  0  0
  1 14  1  0  0  0  0
  1 61  1  0  0  0  0
  2 24  1  0  0  0  0
  2 65  1  0  0  0  0
  3 28  1  0  0  0  0
  3 68  1  0  0  0  0
  4 28  2  0  0  0  0
  5  6  1  0  0  0  0
  5  7  1  0  0  0  0
  5 15  1  0  0  0  0
  5 29  1  0  0  0  0
  6 10  1  0  0  0  0
  6 12  1  0  0  0  0
  6 19  1  0  0  0  0
  7  8  1  0  0  0  0
  7 14  1  0  0  0  0
  7 30  1  0  0  0  0
  8  9  1  0  0  0  0
  8 13  1  0  0  0  0
  8 31  1  0  0  0  0
  9 11  1  0  0  0  0
  9 18  1  0  0  0  0
  9 22  1  0  0  0  0
 10 16  1  0  0  0  0
 10 20  1  0  0  0  0
 10 32  1  0  0  0  0
 11 17  1  0  0  0  0
 11 21  1  0  0  0  0
 11 33  1  0  0  0  0
 12 13  1  0  0  0  0
 12 34  1  0  0  0  0
 12 35  1  0  0  0  0
 13 36  1  0  0  0  0
 13 37  1  0  0  0  0
 14 17  1  0  0  0  0
 14 38  1  0  0  0  0
 15 16  1  0  0  0  0
 15 39  1  0  0  0  0
 15 40  1  0  0  0  0
 16 41  1  0  0  0  0
 16 42  1  0  0  0  0
 17 43  1  0  0  0  0
 17 44  1  0  0  0  0
 18 23  1  0  0  0  0
 18 45  1  0  0  0  0
 18 46  1  0  0  0  0
 19 47  1  0  0  0  0
 19 48  1  0  0  0  0
 19 49  1  0  0  0  0
 20 25  1  0  0  0  0
 20 26  1  0  0  0  0
 20 50  1  0  0  0  0
 21 24  1  0  0  0  0
 21 51  1  0  0  0  0
 21 52  1  0  0  0  0
 22 53  1  0  0  0  0
 22 54  1  0  0  0  0
 22 55  1  0  0  0  0
 23 24  1  0  0  0  0
 23 56  1  0  0  0  0
 23 57  1  0  0  0  0
 24 58  1  0  0  0  0
 25 27  1  0  0  0  0
 25 59  1  0  0  0  0
 25 60  1  0  0  0  0
 26 62  1  0  0  0  0
 26 63  1  0  0  0  0
 26 64  1  0  0  0  0
 27 28  1  0  0  0  0
 27 66  1  0  0  0  0
 27 67  1  0  0  0  0
M  END
> <PUBCHEM_COMPOUND_CID>
10133

> <PUBCHEM_CONFORMER_RMSD>
0.8

> <PUBCHEM_CONFORMER_DIVERSEORDER>
1
5
3
4
2

> <PUBCHEM_MMFF94_PARTIAL_CHARGES>
11
1 -0.68
14 0.28
2 -0.68
24 0.28
27 0.06
28 0.66
3 -0.65
4 -0.57
61 0.4
65 0.4
68 0.5

> <PUBCHEM_EFFECTIVE_ROTOR_COUNT>
6.2

> <PUBCHEM_PHARMACOPHORE_FEATURES>
12
1 1 acceptor
1 1 donor
1 2 acceptor
1 2 donor
1 26 hydrophobe
1 3 acceptor
1 4 acceptor
3 3 4 28 anion
5 5 6 10 15 16 rings
6 5 6 7 8 12 13 rings
6 7 8 9 11 14 17 rings
6 9 11 18 21 23 24 rings

> <PUBCHEM_HEAVY_ATOM_COUNT>
28

> <PUBCHEM_ATOM_DEF_STEREO_COUNT>
10

> <PUBCHEM_ATOM_UDEF_STEREO_COUNT>
0

> <PUBCHEM_BOND_DEF_STEREO_COUNT>
0

> <PUBCHEM_BOND_UDEF_STEREO_COUNT>
0

> <PUBCHEM_ISOTOPIC_ATOM_COUNT>
0

> <PUBCHEM_COMPONENT_COUNT>
1

> <PUBCHEM_CACTVS_TAUTO_COUNT>
1

> <PUBCHEM_CONFORMER_ID>
0000279500000001

> <PUBCHEM_MMFF94_ENERGY>
98.3711

> <PUBCHEM_FEATURE_SELFOVERLAP>
61.077

> <PUBCHEM_SHAPE_FINGERPRINT>
10675989 125 16825575996399212613
11089746 13 11095882653218022170
11135609 12 18113905944363332721
12166972 35 17676492774114792876
12236239 1 17748825198893703508
12422481 6 17917714608119298557
12596602 18 17458340827941685736
12633257 1 17489305330380158329
12788726 201 18057880247892638216
13009979 54 18041002847016188125
13140716 1 18196369445095455147
13224815 77 18336262440175454533
13583140 156 18336815425662356797
13782708 43 16733255781987481274
13914758 101 13398638221106775274
14341114 176 18341891917976569768
14787075 74 18186517701025726176
14856354 85 18336831982450540439
14955137 171 18131071554298621256
15183329 4 18411412909019904334
15537594 2 18343297059424511446
15685185 35 17244723492047349196
16110190 28 18271806873199299985
17349148 13 17749107794324115408
17844677 252 17418086625249616992
1813 80 17386005014728457414
18608769 82 18334580182610487946
18927931 339 18409443696257686631
21033648 29 16773213142600101938
21150785 3 15502378945862797010
21267235 1 18410856576830240751
21859007 373 13181923366664697712
22182313 1 18059299746930421109
23081809 10 14908170985123800248
23402539 116 18200861946289631308
23522609 53 18194710204692854544
23559900 14 18129082559138727104
23569914 152 11968107609434555034
23569943 247 17773877494003226286
2838139 119 12247682656075574267
3004659 81 18335698301133426498
335352 9 18411129230730414845
34797466 226 18341904017574448724
350125 39 18409730677045074744
392239 28 18410016572075799035
4015057 19 13695881332409705102
5104073 3 18268419153905685826
59755656 215 18272647914096090622
999808 66 18260836998449795650

> <PUBCHEM_SHAPE_MULTIPOLES>
552.75
15.16
2.23
1.55
19.34
0.58
-0.21
-4.97
2.83
-1.4
0.16
-1.46
-0.27
0.43

> <PUBCHEM_SHAPE_SELFOVERLAP>
1158.271

> <PUBCHEM_SHAPE_VOLUME>
310.5

> <PUBCHEM_COORDINATE_TYPE>
2
5
10

$$$$
