71228883
  -OEChem-02232406533D

 61 66  0     0  0  0  0  0  0999 V2000
    1.2877    2.2094   -2.9963 Cl  0  0  0  0  0  0  0  0  0  0  0  0
   -5.3949    1.1939   -2.1341 Cl  0  0  0  0  0  0  0  0  0  0  0  0
   -5.9250    0.2373    3.2385 Cl  0  0  0  0  0  0  0  0  0  0  0  0
    2.9836    3.0247   -0.3111 O   0  0  0  0  0  0  0  0  0  0  0  0
   -6.1445   -2.6317   -0.0911 O   0  0  0  0  0  0  0  0  0  0  0  0
   -2.5029   -0.2016   -0.6222 O   0  0  0  0  0  0  0  0  0  0  0  0
    9.8607   -1.4042    1.8376 O   0  0  0  0  0  0  0  0  0  0  0  0
    8.1877   -0.5815    3.1381 O   0  0  0  0  0  0  0  0  0  0  0  0
    4.7611    0.6999   -0.4554 N   0  0  0  0  0  0  0  0  0  0  0  0
   -6.6259   -1.3410    0.0913 N   0  0  0  0  0  0  0  0  0  0  0  0
    6.5989   -0.1886   -1.6576 N   0  0  0  0  0  0  0  0  0  0  0  0
   -3.9118   -3.8720   -0.0911 C   0  0  0  0  0  0  0  0  0  0  0  0
   -3.2809   -4.1682   -1.4202 C   0  0  0  0  0  0  0  0  0  0  0  0
   -4.4083   -5.0217   -0.9177 C   0  0  0  0  0  0  0  0  0  0  0  0
    2.9204    1.5834   -0.4317 C   0  0  0  0  0  0  0  0  0  0  0  0
    3.8605    1.0298   -1.5070 C   0  0  0  0  0  0  0  0  0  0  0  0
    3.8050    0.8571    0.5868 C   0  0  0  0  0  0  0  0  0  0  0  0
   -4.7936   -2.6292    0.0428 C   0  0  0  0  0  0  0  0  0  0  0  0
    1.4404    1.1103   -0.5101 C   0  0  0  0  0  0  0  0  0  0  0  0
   -4.3593   -1.3583    0.3120 C   0  0  0  0  0  0  0  0  0  0  0  0
    6.0430    0.1332   -0.4680 C   0  0  0  0  0  0  0  0  0  0  0  0
   -2.9753   -0.9018    0.5297 C   0  0  0  0  0  0  0  0  0  0  0  0
   -5.5415   -0.5983    0.3306 C   0  0  0  0  0  0  0  0  0  0  0  0
    0.6538    1.3608   -1.6346 C   0  0  0  0  0  0  0  0  0  0  0  0
    0.9038    0.4199    0.5768 C   0  0  0  0  0  0  0  0  0  0  0  0
   -1.2062    0.2310   -0.5851 C   0  0  0  0  0  0  0  0  0  0  0  0
   -0.6695    0.9211   -1.6720 C   0  0  0  0  0  0  0  0  0  0  0  0
   -0.4195   -0.0196    0.5394 C   0  0  0  0  0  0  0  0  0  0  0  0
    6.6627   -0.0616    0.7559 C   0  0  0  0  0  0  0  0  0  0  0  0
   -5.6687    0.8198    0.5702 C   0  0  0  0  0  0  0  0  0  0  0  0
    7.9348   -0.6230    0.7591 C   0  0  0  0  0  0  0  0  0  0  0  0
    7.8361   -0.7322   -1.6147 C   0  0  0  0  0  0  0  0  0  0  0  0
    8.5398   -0.9675   -0.4445 C   0  0  0  0  0  0  0  0  0  0  0  0
   -5.6136    1.7154   -0.4979 C   0  0  0  0  0  0  0  0  0  0  0  0
   -5.8468    1.2943    1.8697 C   0  0  0  0  0  0  0  0  0  0  0  0
    8.6304   -0.8492    2.0159 C   0  0  0  0  0  0  0  0  0  0  0  0
   -5.7368    3.0855   -0.2664 C   0  0  0  0  0  0  0  0  0  0  0  0
   -5.9700    2.6644    2.1013 C   0  0  0  0  0  0  0  0  0  0  0  0
   -5.9152    3.5599    1.0331 C   0  0  0  0  0  0  0  0  0  0  0  0
   -3.3426   -4.1270    0.7966 H   0  0  0  0  0  0  0  0  0  0  0  0
   -2.2855   -4.5957   -1.4209 H   0  0  0  0  0  0  0  0  0  0  0  0
   -3.4829   -3.5080   -2.2550 H   0  0  0  0  0  0  0  0  0  0  0  0
   -5.3620   -4.9393   -1.4245 H   0  0  0  0  0  0  0  0  0  0  0  0
   -4.1697   -6.0239   -0.5821 H   0  0  0  0  0  0  0  0  0  0  0  0
    4.2815    1.7608   -2.2032 H   0  0  0  0  0  0  0  0  0  0  0  0
    3.5228    0.1409   -2.0500 H   0  0  0  0  0  0  0  0  0  0  0  0
    3.4951   -0.1225    0.9618 H   0  0  0  0  0  0  0  0  0  0  0  0
    4.1644    1.4756    1.4147 H   0  0  0  0  0  0  0  0  0  0  0  0
    2.5630    3.2291    0.5418 H   0  0  0  0  0  0  0  0  0  0  0  0
   -2.9605   -0.2398    1.4054 H   0  0  0  0  0  0  0  0  0  0  0  0
   -2.3447   -1.7775    0.7265 H   0  0  0  0  0  0  0  0  0  0  0  0
    1.4679    0.2373    1.4852 H   0  0  0  0  0  0  0  0  0  0  0  0
   -1.2914    1.1109   -2.5439 H   0  0  0  0  0  0  0  0  0  0  0  0
   -0.7706   -0.5349    1.4266 H   0  0  0  0  0  0  0  0  0  0  0  0
    6.1819    0.2130    1.6892 H   0  0  0  0  0  0  0  0  0  0  0  0
    8.2632   -0.9829   -2.5801 H   0  0  0  0  0  0  0  0  0  0  0  0
    9.5284   -1.4082   -0.5101 H   0  0  0  0  0  0  0  0  0  0  0  0
   -5.6961    3.7978   -1.0867 H   0  0  0  0  0  0  0  0  0  0  0  0
   -6.1094    3.0519    3.1075 H   0  0  0  0  0  0  0  0  0  0  0  0
   -6.0111    4.6266    1.2134 H   0  0  0  0  0  0  0  0  0  0  0  0
   10.3211   -1.5527    2.6911 H   0  0  0  0  0  0  0  0  0  0  0  0
  1 24  1  0  0  0  0
  2 34  1  0  0  0  0
  3 35  1  0  0  0  0
  4 15  1  0  0  0  0
  4 49  1  0  0  0  0
  5 10  1  0  0  0  0
  5 18  1  0  0  0  0
  6 22  1  0  0  0  0
  6 26  1  0  0  0  0
  7 36  1  0  0  0  0
  7 61  1  0  0  0  0
  8 36  2  0  0  0  0
  9 16  1  0  0  0  0
  9 17  1  0  0  0  0
  9 21  1  0  0  0  0
 10 23  2  0  0  0  0
 11 21  2  0  0  0  0
 11 32  1  0  0  0  0
 12 13  1  0  0  0  0
 12 14  1  0  0  0  0
 12 18  1  0  0  0  0
 12 40  1  0  0  0  0
 13 14  1  0  0  0  0
 13 41  1  0  0  0  0
 13 42  1  0  0  0  0
 14 43  1  0  0  0  0
 14 44  1  0  0  0  0
 15 16  1  0  0  0  0
 15 17  1  0  0  0  0
 15 19  1  0  0  0  0
 16 45  1  0  0  0  0
 16 46  1  0  0  0  0
 17 47  1  0  0  0  0
 17 48  1  0  0  0  0
 18 20  2  0  0  0  0
 19 24  2  0  0  0  0
 19 25  1  0  0  0  0
 20 22  1  0  0  0  0
 20 23  1  0  0  0  0
 21 29  1  0  0  0  0
 22 50  1  0  0  0  0
 22 51  1  0  0  0  0
 23 30  1  0  0  0  0
 24 27  1  0  0  0  0
 25 28  2  0  0  0  0
 25 52  1  0  0  0  0
 26 27  2  0  0  0  0
 26 28  1  0  0  0  0
 27 53  1  0  0  0  0
 28 54  1  0  0  0  0
 29 31  2  0  0  0  0
 29 55  1  0  0  0  0
 30 34  2  0  0  0  0
 30 35  1  0  0  0  0
 31 33  1  0  0  0  0
 31 36  1  0  0  0  0
 32 33  2  0  0  0  0
 32 56  1  0  0  0  0
 33 57  1  0  0  0  0
 34 37  1  0  0  0  0
 35 38  2  0  0  0  0
 37 39  2  0  0  0  0
 37 58  1  0  0  0  0
 38 39  1  0  0  0  0
 38 59  1  0  0  0  0
 39 60  1  0  0  0  0
M  END
> <PUBCHEM_COMPOUND_CID>
71228883

> <PUBCHEM_CONFORMER_RMSD>
1

> <PUBCHEM_CONFORMER_DIVERSEORDER>
3
104
140
143
97
74
122
138
102
73
88
137
76
145
127
131
123
134
67
144
36
119
111
81
62
126
16
103
113
29
112
136
121
105
124
89
1
146
65
141
80
106
68
35
129
120
82
10
64
66
133
142
19
109
95
60
84
86
17
98
107
51
25
78
43
139
87
59
77
75
9
130
83
13
58
92
114
28
132
61
71
70
12
116
118
101
94
18
50
69
93
90
99
54
85
47
38
52
7
72
135
79
91
24
53
30
27
110
40
108
34
128
96
117
39
100
44
49
8
57
26
48
37
55
33
45
63
46
42
115
31
125
11
41
22
56
14
2
20
21
15
4
32
5
23
6

> <PUBCHEM_MMFF94_PARTIAL_CHARGES>
55
1 -0.18
10 -0.41
11 -0.62
12 -0.01
13 -0.2
14 -0.2
15 0.37
16 0.25
17 0.25
18 0.05
19 -0.11
2 -0.18
20 -0.18
21 0.41
22 0.46
23 0.23
24 0.18
25 -0.15
26 0.08
27 -0.15
28 -0.15
29 -0.15
3 -0.18
30 0.05
31 0.09
32 0.16
33 -0.15
34 0.18
35 0.18
36 0.63
37 -0.15
38 -0.15
39 -0.15
4 -0.66
40 0.1
41 0.1
42 0.1
43 0.1
44 0.1
49 0.4
5 -0.02
52 0.15
53 0.15
54 0.15
55 0.15
56 0.15
57 0.15
58 0.15
59 0.15
6 -0.36
60 0.15
61 0.5
7 -0.65
8 -0.57
9 -0.59

> <PUBCHEM_EFFECTIVE_ROTOR_COUNT>
9.4

> <PUBCHEM_PHARMACOPHORE_FEATURES>
13
1 10 acceptor
1 4 acceptor
1 4 donor
1 6 acceptor
1 7 acceptor
1 8 acceptor
3 7 8 36 anion
3 9 11 21 cation
4 9 15 16 17 rings
5 5 10 18 20 23 rings
6 11 21 29 31 32 33 rings
6 19 24 25 26 27 28 rings
6 30 34 35 37 38 39 rings

> <PUBCHEM_HEAVY_ATOM_COUNT>
39

> <PUBCHEM_ATOM_DEF_STEREO_COUNT>
0

> <PUBCHEM_ATOM_UDEF_STEREO_COUNT>
0

> <PUBCHEM_BOND_DEF_STEREO_COUNT>
0

> <PUBCHEM_BOND_UDEF_STEREO_COUNT>
0

> <PUBCHEM_ISOTOPIC_ATOM_COUNT>
0

> <PUBCHEM_COMPONENT_COUNT>
1

> <PUBCHEM_CACTVS_TAUTO_COUNT>
1

> <PUBCHEM_CONFORMER_ID>
043EDDD300000003

> <PUBCHEM_MMFF94_ENERGY>
118.1389

> <PUBCHEM_FEATURE_SELFOVERLAP>
66.032

> <PUBCHEM_SHAPE_FINGERPRINT>
11059845 2 18340776961757336053
11103572 155 15864905405383151080
11103572 95 18272088233098779562
11973863 73 17749385911132416256
12133447 93 18271259231369068006
12144603 126 18260274071078791772
13782708 43 18339079423199123398
14068700 675 18335422391828040292
14856354 85 16660659474681075801
15021287 119 17749396992058590013
15183329 4 17821449079620980494
15320294 125 18334023787441298445
15392192 29 17822025211457021114
15419008 91 17988913467103485744
15439362 3 18052262796242583525
16096371 109 15267074623235184278
19246450 95 18336827472956269401
21585481 151 18413673505180293590
21792965 169 16226060981127065494
21814621 53 17846777434079552994
21895439 516 12829474923425125744
23522609 53 17897472620807160092
23569943 247 17676476229705512386
3504750 166 18338795732103833719
397638 26 18059862752766006563
397830 11 18058723749462667568
4144715 1 18271813491865508561
444769 64 17821731619718088321
5470011 282 14924233720904046726
6009941 240 18060143111024826872
6636735 143 17417797483788171618
6691757 9 18343303648420840377
68570916 9 18337675334039761996
9831232 110 18272101470356343654

> <PUBCHEM_SHAPE_MULTIPOLES>
763.92
28.46
4.24
2.46
59.68
4.61
-0.8
5.66
-14.2
-11.46
1.26
1.17
-0.84
-3.69

> <PUBCHEM_SHAPE_SELFOVERLAP>
1657.911

> <PUBCHEM_SHAPE_VOLUME>
420.5

> <PUBCHEM_COORDINATE_TYPE>
2
5
10

$$$$
