121428882
  -OEChem-02232407023D

102106  0     1  0  0  0  0  0999 V2000
   -6.5424    0.2842    0.0106 S   0  0  0  0  0  0  0  0  0  0  0  0
    3.9714   -0.8947   -2.2689 O   0  0  0  0  0  0  0  0  0  0  0  0
    8.0003   -1.7057    0.4595 O   0  0  0  0  0  0  0  0  0  0  0  0
   -4.8836   -1.8969   -1.4534 O   0  0  0  0  0  0  0  0  0  0  0  0
   -6.9191    0.1517   -1.3835 O   0  0  0  0  0  0  0  0  0  0  0  0
   -7.5049    0.7464    0.9919 O   0  0  0  0  0  0  0  0  0  0  0  0
   -4.6551   -3.2005    0.4433 N   0  0  0  0  0  0  0  0  0  0  0  0
   -5.8463   -1.1810    0.5507 N   0  0  0  0  0  0  0  0  0  0  0  0
    2.4935   -0.1383   -0.4983 C   0  0  2  0  0  0  0  0  0  0  0  0
    3.3475   -0.5850    0.7361 C   0  0  1  0  0  0  0  0  0  0  0  0
    1.5142   -1.2688   -0.8505 C   0  0  1  0  0  0  0  0  0  0  0  0
    0.5513   -1.6179    0.3042 C   0  0  1  0  0  0  0  0  0  0  0  0
    4.3827    0.5240    1.1654 C   0  0  2  0  0  0  0  0  0  0  0  0
    5.2907    0.8917   -0.0648 C   0  0  2  0  0  0  0  0  0  0  0  0
   -0.2999   -2.7023   -0.4014 C   0  0  2  0  0  0  0  0  0  0  0  0
    3.3767    0.2661   -1.6972 C   0  0  1  0  0  0  0  0  0  0  0  0
    2.4581   -1.0991    1.9031 C   0  0  0  0  0  0  0  0  0  0  0  0
    1.3995   -2.1302    1.4745 C   0  0  0  0  0  0  0  0  0  0  0  0
    4.4399    1.3109   -1.3003 C   0  0  2  0  0  0  0  0  0  0  0  0
    0.5861   -1.0914   -2.0493 C   0  0  0  0  0  0  0  0  0  0  0  0
   -0.5349   -2.1203   -1.8145 C   0  0  0  0  0  0  0  0  0  0  0  0
    5.2908    0.0676    2.3458 C   0  0  0  0  0  0  0  0  0  0  0  0
    6.3245   -0.2147   -0.3834 C   0  0  0  0  0  0  0  0  0  0  0  0
   -0.3316   -0.4356    0.7758 C   0  0  0  0  0  0  0  0  0  0  0  0
    3.6570    1.7992    1.6757 C   0  0  0  0  0  0  0  0  0  0  0  0
   -1.5909   -3.1139    0.2914 C   0  0  1  0  0  0  0  0  0  0  0  0
    6.2625   -1.0461    1.9882 C   0  0  0  0  0  0  0  0  0  0  0  0
    7.1534   -0.6226    0.8303 C   0  0  1  0  0  0  0  0  0  0  0  0
    5.3049    1.7272   -2.4967 C   0  0  0  0  0  0  0  0  0  0  0  0
   -2.5592   -3.7517   -0.7297 C   0  0  0  0  0  0  0  0  0  0  0  0
   -1.2820   -4.0563    1.4597 C   0  0  0  0  0  0  0  0  0  0  0  0
    6.2612    2.8386   -2.1190 C   0  0  0  0  0  0  0  0  0  0  0  0
   -3.8807   -4.2533   -0.1522 C   0  0  0  0  0  0  0  0  0  0  0  0
   -5.1005   -2.0932   -0.2614 C   0  0  0  0  0  0  0  0  0  0  0  0
   -5.1537    1.3734    0.1042 C   0  0  0  0  0  0  0  0  0  0  0  0
   -4.9017    2.0821    1.2790 C   0  0  0  0  0  0  0  0  0  0  0  0
   -4.3117    1.5268   -0.9972 C   0  0  0  0  0  0  0  0  0  0  0  0
   -3.8076    2.9439    1.3522 C   0  0  0  0  0  0  0  0  0  0  0  0
   -3.2175    2.3887   -0.9238 C   0  0  0  0  0  0  0  0  0  0  0  0
   -2.9653    3.0973    0.2509 C   0  0  0  0  0  0  0  0  0  0  0  0
   -1.7954    4.0189    0.3294 C   0  0  0  0  0  0  0  0  0  0  0  0
   -0.8115    3.5888    1.4613 C   0  0  0  0  0  0  0  0  0  0  0  0
   -0.9241    4.1098   -0.9672 C   0  0  0  0  0  0  0  0  0  0  0  0
   -2.2467    5.4820    0.6294 C   0  0  0  0  0  0  0  0  0  0  0  0
    1.9134    0.7501   -0.2298 H   0  0  0  0  0  0  0  0  0  0  0  0
    3.9221   -1.4630    0.4107 H   0  0  0  0  0  0  0  0  0  0  0  0
    2.1201   -2.1655   -1.0614 H   0  0  0  0  0  0  0  0  0  0  0  0
    5.8756    1.7679    0.2482 H   0  0  0  0  0  0  0  0  0  0  0  0
    0.3206   -3.6014   -0.5389 H   0  0  0  0  0  0  0  0  0  0  0  0
    2.7425    0.7104   -2.4751 H   0  0  0  0  0  0  0  0  0  0  0  0
    1.9575   -0.2607    2.3973 H   0  0  0  0  0  0  0  0  0  0  0  0
    3.0846   -1.5763    2.6646 H   0  0  0  0  0  0  0  0  0  0  0  0
    1.9029   -3.0670    1.2046 H   0  0  0  0  0  0  0  0  0  0  0  0
    0.7904   -2.3348    2.3568 H   0  0  0  0  0  0  0  0  0  0  0  0
    3.8819    2.2119   -1.0101 H   0  0  0  0  0  0  0  0  0  0  0  0
    1.0934   -1.2751   -3.0010 H   0  0  0  0  0  0  0  0  0  0  0  0
    0.1732   -0.0766   -2.0868 H   0  0  0  0  0  0  0  0  0  0  0  0
   -1.4822   -1.5778   -1.9033 H   0  0  0  0  0  0  0  0  0  0  0  0
   -0.5127   -2.9059   -2.5775 H   0  0  0  0  0  0  0  0  0  0  0  0
    4.6919   -0.2355    3.2112 H   0  0  0  0  0  0  0  0  0  0  0  0
    5.8826    0.9267    2.6932 H   0  0  0  0  0  0  0  0  0  0  0  0
    5.8417   -1.1101   -0.7867 H   0  0  0  0  0  0  0  0  0  0  0  0
    7.0165    0.1137   -1.1667 H   0  0  0  0  0  0  0  0  0  0  0  0
   -1.0243   -0.0900    0.0023 H   0  0  0  0  0  0  0  0  0  0  0  0
    0.2647    0.4277    1.0773 H   0  0  0  0  0  0  0  0  0  0  0  0
   -0.9253   -0.7115    1.6543 H   0  0  0  0  0  0  0  0  0  0  0  0
    2.9233    2.1940    0.9699 H   0  0  0  0  0  0  0  0  0  0  0  0
    4.3760    2.6041    1.8702 H   0  0  0  0  0  0  0  0  0  0  0  0
    3.1317    1.6117    2.6182 H   0  0  0  0  0  0  0  0  0  0  0  0
   -2.1102   -2.2404    0.6960 H   0  0  0  0  0  0  0  0  0  0  0  0
    6.8861   -1.2903    2.8570 H   0  0  0  0  0  0  0  0  0  0  0  0
    5.7289   -1.9723    1.7443 H   0  0  0  0  0  0  0  0  0  0  0  0
    7.7952    0.2097    1.1431 H   0  0  0  0  0  0  0  0  0  0  0  0
    5.8588    0.8814   -2.9173 H   0  0  0  0  0  0  0  0  0  0  0  0
    4.6489    2.0913   -3.2975 H   0  0  0  0  0  0  0  0  0  0  0  0
    3.2983   -1.3531   -2.7976 H   0  0  0  0  0  0  0  0  0  0  0  0
   -2.7940   -3.0710   -1.5486 H   0  0  0  0  0  0  0  0  0  0  0  0
   -2.0587   -4.6131   -1.1928 H   0  0  0  0  0  0  0  0  0  0  0  0
   -2.1967   -4.4287    1.9292 H   0  0  0  0  0  0  0  0  0  0  0  0
   -0.7445   -3.5582    2.2632 H   0  0  0  0  0  0  0  0  0  0  0  0
   -0.7000   -4.9246    1.1335 H   0  0  0  0  0  0  0  0  0  0  0  0
    5.7432    3.6647   -1.6211 H   0  0  0  0  0  0  0  0  0  0  0  0
    6.7310    3.2420   -3.0227 H   0  0  0  0  0  0  0  0  0  0  0  0
    7.0718    2.4925   -1.4720 H   0  0  0  0  0  0  0  0  0  0  0  0
    8.5705   -1.3984   -0.2658 H   0  0  0  0  0  0  0  0  0  0  0  0
   -4.4823   -4.6804   -0.9634 H   0  0  0  0  0  0  0  0  0  0  0  0
   -3.7414   -5.0437    0.5899 H   0  0  0  0  0  0  0  0  0  0  0  0
   -4.8973   -3.2773    1.4263 H   0  0  0  0  0  0  0  0  0  0  0  0
   -6.0138   -1.4421    1.5306 H   0  0  0  0  0  0  0  0  0  0  0  0
   -5.5401    1.9727    2.1510 H   0  0  0  0  0  0  0  0  0  0  0  0
   -4.4877    0.9813   -1.9199 H   0  0  0  0  0  0  0  0  0  0  0  0
   -3.6337    3.4822    2.2796 H   0  0  0  0  0  0  0  0  0  0  0  0
   -2.5946    2.4683   -1.8079 H   0  0  0  0  0  0  0  0  0  0  0  0
    0.0583    4.2545    1.5071 H   0  0  0  0  0  0  0  0  0  0  0  0
   -1.2868    3.6100    2.4480 H   0  0  0  0  0  0  0  0  0  0  0  0
   -0.4455    2.5722    1.2920 H   0  0  0  0  0  0  0  0  0  0  0  0
   -0.0862    4.8046   -0.8320 H   0  0  0  0  0  0  0  0  0  0  0  0
   -0.4929    3.1365   -1.2299 H   0  0  0  0  0  0  0  0  0  0  0  0
   -1.5087    4.4747   -1.8198 H   0  0  0  0  0  0  0  0  0  0  0  0
   -1.3903    6.1656    0.6584 H   0  0  0  0  0  0  0  0  0  0  0  0
   -2.9386    5.8417   -0.1415 H   0  0  0  0  0  0  0  0  0  0  0  0
   -2.7572    5.5628    1.5953 H   0  0  0  0  0  0  0  0  0  0  0  0
  1  5  2  0  0  0  0
  1  6  2  0  0  0  0
  1  8  1  0  0  0  0
  1 35  1  0  0  0  0
  2 16  1  0  0  0  0
  2 76  1  0  0  0  0
  3 28  1  0  0  0  0
  3 85  1  0  0  0  0
  4 34  2  0  0  0  0
  7 33  1  0  0  0  0
  7 34  1  0  0  0  0
  7 88  1  0  0  0  0
  8 34  1  0  0  0  0
  8 89  1  0  0  0  0
  9 10  1  0  0  0  0
  9 11  1  0  0  0  0
  9 16  1  0  0  0  0
  9 45  1  0  0  0  0
 10 13  1  0  0  0  0
 10 17  1  0  0  0  0
 10 46  1  0  0  0  0
 11 12  1  0  0  0  0
 11 20  1  0  0  0  0
 11 47  1  0  0  0  0
 12 15  1  0  0  0  0
 12 18  1  0  0  0  0
 12 24  1  0  0  0  0
 13 14  1  0  0  0  0
 13 22  1  0  0  0  0
 13 25  1  0  0  0  0
 14 19  1  0  0  0  0
 14 23  1  0  0  0  0
 14 48  1  0  0  0  0
 15 21  1  0  0  0  0
 15 26  1  0  0  0  0
 15 49  1  0  0  0  0
 16 19  1  0  0  0  0
 16 50  1  0  0  0  0
 17 18  1  0  0  0  0
 17 51  1  0  0  0  0
 17 52  1  0  0  0  0
 18 53  1  0  0  0  0
 18 54  1  0  0  0  0
 19 29  1  0  0  0  0
 19 55  1  0  0  0  0
 20 21  1  0  0  0  0
 20 56  1  0  0  0  0
 20 57  1  0  0  0  0
 21 58  1  0  0  0  0
 21 59  1  0  0  0  0
 22 27  1  0  0  0  0
 22 60  1  0  0  0  0
 22 61  1  0  0  0  0
 23 28  1  0  0  0  0
 23 62  1  0  0  0  0
 23 63  1  0  0  0  0
 24 64  1  0  0  0  0
 24 65  1  0  0  0  0
 24 66  1  0  0  0  0
 25 67  1  0  0  0  0
 25 68  1  0  0  0  0
 25 69  1  0  0  0  0
 26 30  1  0  0  0  0
 26 31  1  0  0  0  0
 26 70  1  0  0  0  0
 27 28  1  0  0  0  0
 27 71  1  0  0  0  0
 27 72  1  0  0  0  0
 28 73  1  0  0  0  0
 29 32  1  0  0  0  0
 29 74  1  0  0  0  0
 29 75  1  0  0  0  0
 30 33  1  0  0  0  0
 30 77  1  0  0  0  0
 30 78  1  0  0  0  0
 31 79  1  0  0  0  0
 31 80  1  0  0  0  0
 31 81  1  0  0  0  0
 32 82  1  0  0  0  0
 32 83  1  0  0  0  0
 32 84  1  0  0  0  0
 33 86  1  0  0  0  0
 33 87  1  0  0  0  0
 35 36  2  0  0  0  0
 35 37  1  0  0  0  0
 36 38  1  0  0  0  0
 36 90  1  0  0  0  0
 37 39  2  0  0  0  0
 37 91  1  0  0  0  0
 38 40  2  0  0  0  0
 38 92  1  0  0  0  0
 39 40  1  0  0  0  0
 39 93  1  0  0  0  0
 40 41  1  0  0  0  0
 41 42  1  0  0  0  0
 41 43  1  0  0  0  0
 41 44  1  0  0  0  0
 42 94  1  0  0  0  0
 42 95  1  0  0  0  0
 42 96  1  0  0  0  0
 43 97  1  0  0  0  0
 43 98  1  0  0  0  0
 43 99  1  0  0  0  0
 44100  1  0  0  0  0
 44101  1  0  0  0  0
 44102  1  0  0  0  0
M  END
> <PUBCHEM_COMPOUND_CID>
121428882

> <PUBCHEM_CONFORMER_RMSD>
1.4

> <PUBCHEM_CONFORMER_DIVERSEORDER>
1
40
128
107
118
9
44
22
110
112
82
115
55
75
96
14
76
45
19
58
108
36
60
106
62
41
30
51
99
31
129
117
11
72
52
15
33
103
37
26
18
113
122
17
28
100
124
84
97
50
120
78
16
91
56
12
63
64
69
46
104
105
66
7
73
85
13
109
71
35
24
81
92
79
93
94
90
111
80
86
119
61
116
3
20
87
89
38
121
48
4
126
49
125
123
98
54
39
21
65
42
83
95
53
101
10
130
57
74
68
27
43
102
114
8
23
67
77
25
127
34
32
70
29
6
2
47
88
59
5

> <PUBCHEM_MMFF94_PARTIAL_CHARGES>
27
1 1.45
16 0.28
2 -0.68
28 0.28
3 -0.68
33 0.3
34 0.87
35 -0.01
36 -0.15
37 -0.15
38 -0.15
39 -0.15
4 -0.57
40 -0.14
41 0.14
5 -0.65
6 -0.65
7 -0.73
76 0.4
8 -0.79
85 0.4
88 0.37
89 0.42
90 0.15
91 0.15
92 0.15
93 0.15

> <PUBCHEM_EFFECTIVE_ROTOR_COUNT>
12.2

> <PUBCHEM_PHARMACOPHORE_FEATURES>
17
1 2 acceptor
1 2 donor
1 3 acceptor
1 3 donor
1 31 hydrophobe
1 32 hydrophobe
1 4 acceptor
1 5 acceptor
1 6 acceptor
1 7 donor
1 8 donor
4 41 42 43 44 hydrophobe
5 11 12 15 20 21 rings
6 13 14 22 23 27 28 rings
6 35 36 37 38 39 40 rings
6 9 10 11 12 17 18 rings
6 9 10 13 14 16 19 rings

> <PUBCHEM_HEAVY_ATOM_COUNT>
44

> <PUBCHEM_ATOM_DEF_STEREO_COUNT>
11

> <PUBCHEM_ATOM_UDEF_STEREO_COUNT>
0

> <PUBCHEM_BOND_DEF_STEREO_COUNT>
0

> <PUBCHEM_BOND_UDEF_STEREO_COUNT>
0

> <PUBCHEM_ISOTOPIC_ATOM_COUNT>
0

> <PUBCHEM_COMPONENT_COUNT>
1

> <PUBCHEM_CACTVS_TAUTO_COUNT>
3

> <PUBCHEM_CONFORMER_ID>
073CDB9200000001

> <PUBCHEM_MMFF94_ENERGY>
132.107

> <PUBCHEM_FEATURE_SELFOVERLAP>
86.456

> <PUBCHEM_SHAPE_FINGERPRINT>
100830 39 18411413982387052178
10653451 467 18060695108848606001
10842051 180 18335137605489398317
10864689 126 18341040840385001265
11093857 5 18055921991629292256
11146851 88 18334003992058239909
12128747 34 18271524183296029830
12788726 201 18263931101738133662
13165053 103 15622326722668801460
14040222 383 18341339950950934777
14294032 229 18340491058526977152
14856354 85 18341327864422333943
15001296 14 18337107998682293997
15264996 142 18188506699921542618
15328829 1 17967808332570126474
15351339 4 17832149694471519837
15538507 32 18341054120055186912
15781502 589 18270125742344956788
15968369 153 17916298523121865676
15975801 100 18263918852233183345
19319366 153 17895188879859511147
20764821 26 18265348359700384441
21792964 463 17604726597776525556
21792965 78 17987509322109308958
21796203 349 18047784700099446921
21859007 373 18131350800261190766
22121540 332 18060423482316541942
25223398 141 18338223861297902560
3918712 181 18409732884753561653
392239 28 18411419510079001369
4197921 191 18261394476757189374
4616759 239 17099460421693197440
50677037 204 18343027683755567945
550186 7 18272087201805254695
6036956 94 18263645066308501965
6700243 42 17842304697887101638

> <PUBCHEM_SHAPE_MULTIPOLES>
870.04
18.39
5.99
2.14
6.05
2.6
-0.36
1.31
0.59
-8.34
0.58
2.98
0.31
-2.82

> <PUBCHEM_SHAPE_SELFOVERLAP>
1809.708

> <PUBCHEM_SHAPE_VOLUME>
500.9

> <PUBCHEM_COORDINATE_TYPE>
2
5
10

$$$$
