146898
  -OEChem-02232406353D

 51 54  0     1  0  0  0  0  0999 V2000
   -4.8897    1.6568   -0.3618 O   0  0  0  0  0  0  0  0  0  0  0  0
    5.9958    0.2009   -1.2902 O   0  0  0  0  0  0  0  0  0  0  0  0
   -0.1162    0.7276    0.4532 C   0  0  2  0  0  0  0  0  0  0  0  0
    0.7142   -0.4911   -0.0593 C   0  0  1  0  0  0  0  0  0  0  0  0
   -1.5423    0.6228   -0.1029 C   0  0  1  0  0  0  0  0  0  0  0  0
   -2.2584   -0.6713    0.3564 C   0  0  2  0  0  0  0  0  0  0  0  0
    2.2161   -0.4566    0.4228 C   0  0  2  0  0  0  0  0  0  0  0  0
   -0.0036   -1.8405    0.2171 C   0  0  0  0  0  0  0  0  0  0  0  0
   -1.4783   -1.8599   -0.2235 C   0  0  0  0  0  0  0  0  0  0  0  0
    0.5580    2.0383    0.0274 C   0  0  0  0  0  0  0  0  0  0  0  0
   -2.5258    1.7623    0.1842 C   0  0  0  0  0  0  0  0  0  0  0  0
    2.8134    0.9274    0.1386 C   0  0  0  0  0  0  0  0  0  0  0  0
    1.9854    2.1208    0.5525 C   0  0  0  0  0  0  0  0  0  0  0  0
   -3.6379   -0.4035   -0.1994 C   0  0  0  0  0  0  0  0  0  0  0  0
    3.0055   -1.5472   -0.3586 C   0  0  0  0  0  0  0  0  0  0  0  0
   -2.3989   -0.8199    1.8898 C   0  0  0  0  0  0  0  0  0  0  0  0
    2.3438   -0.7348    1.9377 C   0  0  0  0  0  0  0  0  0  0  0  0
   -3.8303    1.0837   -0.1654 C   0  0  0  0  0  0  0  0  0  0  0  0
    4.5150   -1.3836   -0.2765 C   0  0  0  0  0  0  0  0  0  0  0  0
    4.0171    1.1251   -0.4246 C   0  0  0  0  0  0  0  0  0  0  0  0
   -4.5477   -1.2409   -0.7001 C   0  0  0  0  0  0  0  0  0  0  0  0
    4.9187   -0.0077   -0.7355 C   0  0  0  0  0  0  0  0  0  0  0  0
   -5.8541   -0.8091   -1.2818 C   0  0  0  0  0  0  0  0  0  0  0  0
   -0.1563    0.7157    1.5479 H   0  0  0  0  0  0  0  0  0  0  0  0
    0.7397   -0.3940   -1.1573 H   0  0  0  0  0  0  0  0  0  0  0  0
   -1.4448    0.5867   -1.2030 H   0  0  0  0  0  0  0  0  0  0  0  0
    0.0510   -2.0878    1.2817 H   0  0  0  0  0  0  0  0  0  0  0  0
    0.5093   -2.6513   -0.3122 H   0  0  0  0  0  0  0  0  0  0  0  0
   -1.5179   -1.8399   -1.3209 H   0  0  0  0  0  0  0  0  0  0  0  0
   -1.9336   -2.8097    0.0834 H   0  0  0  0  0  0  0  0  0  0  0  0
   -0.0060    2.8961    0.4115 H   0  0  0  0  0  0  0  0  0  0  0  0
    0.5609    2.1238   -1.0670 H   0  0  0  0  0  0  0  0  0  0  0  0
   -2.3533    2.6182   -0.4732 H   0  0  0  0  0  0  0  0  0  0  0  0
   -2.5298    2.0712    1.2325 H   0  0  0  0  0  0  0  0  0  0  0  0
    1.9703    2.1802    1.6479 H   0  0  0  0  0  0  0  0  0  0  0  0
    2.4341    3.0581    0.2013 H   0  0  0  0  0  0  0  0  0  0  0  0
    2.7189   -1.5165   -1.4192 H   0  0  0  0  0  0  0  0  0  0  0  0
    2.7453   -2.5488    0.0038 H   0  0  0  0  0  0  0  0  0  0  0  0
   -2.9471   -1.7375    2.1364 H   0  0  0  0  0  0  0  0  0  0  0  0
   -1.4344   -0.8763    2.4014 H   0  0  0  0  0  0  0  0  0  0  0  0
   -2.9496    0.0117    2.3437 H   0  0  0  0  0  0  0  0  0  0  0  0
    2.0852   -1.7706    2.1811 H   0  0  0  0  0  0  0  0  0  0  0  0
    3.3684   -0.5714    2.2918 H   0  0  0  0  0  0  0  0  0  0  0  0
    1.6957   -0.0859    2.5349 H   0  0  0  0  0  0  0  0  0  0  0  0
    4.9920   -2.1222   -0.9304 H   0  0  0  0  0  0  0  0  0  0  0  0
    4.8872   -1.5389    0.7408 H   0  0  0  0  0  0  0  0  0  0  0  0
    4.4010    2.1204   -0.6218 H   0  0  0  0  0  0  0  0  0  0  0  0
   -4.3400   -2.3074   -0.7037 H   0  0  0  0  0  0  0  0  0  0  0  0
   -6.3251   -1.6631   -1.7811 H   0  0  0  0  0  0  0  0  0  0  0  0
   -5.7292   -0.0330   -2.0428 H   0  0  0  0  0  0  0  0  0  0  0  0
   -6.5412   -0.4701   -0.5009 H   0  0  0  0  0  0  0  0  0  0  0  0
  1 18  2  0  0  0  0
  2 22  2  0  0  0  0
  3  4  1  0  0  0  0
  3  5  1  0  0  0  0
  3 10  1  0  0  0  0
  3 24  1  0  0  0  0
  4  7  1  0  0  0  0
  4  8  1  0  0  0  0
  4 25  1  0  0  0  0
  5  6  1  0  0  0  0
  5 11  1  0  0  0  0
  5 26  1  0  0  0  0
  6  9  1  0  0  0  0
  6 14  1  0  0  0  0
  6 16  1  0  0  0  0
  7 12  1  0  0  0  0
  7 15  1  0  0  0  0
  7 17  1  0  0  0  0
  8  9  1  0  0  0  0
  8 27  1  0  0  0  0
  8 28  1  0  0  0  0
  9 29  1  0  0  0  0
  9 30  1  0  0  0  0
 10 13  1  0  0  0  0
 10 31  1  0  0  0  0
 10 32  1  0  0  0  0
 11 18  1  0  0  0  0
 11 33  1  0  0  0  0
 11 34  1  0  0  0  0
 12 13  1  0  0  0  0
 12 20  2  0  0  0  0
 13 35  1  0  0  0  0
 13 36  1  0  0  0  0
 14 18  1  0  0  0  0
 14 21  2  3  0  0  0
 15 19  1  0  0  0  0
 15 37  1  0  0  0  0
 15 38  1  0  0  0  0
 16 39  1  0  0  0  0
 16 40  1  0  0  0  0
 16 41  1  0  0  0  0
 17 42  1  0  0  0  0
 17 43  1  0  0  0  0
 17 44  1  0  0  0  0
 19 22  1  0  0  0  0
 19 45  1  0  0  0  0
 19 46  1  0  0  0  0
 20 22  1  0  0  0  0
 20 47  1  0  0  0  0
 21 23  1  0  0  0  0
 21 48  1  0  0  0  0
 23 49  1  0  0  0  0
 23 50  1  0  0  0  0
 23 51  1  0  0  0  0
M  END
> <PUBCHEM_COMPOUND_CID>
146898

> <PUBCHEM_CONFORMER_RMSD>
0.6

> <PUBCHEM_CONFORMER_DIVERSEORDER>
1

> <PUBCHEM_MMFF94_PARTIAL_CHARGES>
16
1 -0.57
11 0.06
12 -0.28
13 0.14
14 -0.12
18 0.49
19 0.06
2 -0.57
20 -0.14
21 -0.29
22 0.49
23 0.14
47 0.15
48 0.15
6 0.14
7 0.14

> <PUBCHEM_EFFECTIVE_ROTOR_COUNT>
1.4

> <PUBCHEM_PHARMACOPHORE_FEATURES>
7
1 1 acceptor
1 2 acceptor
1 23 hydrophobe
5 5 6 11 14 18 rings
6 3 4 5 6 8 9 rings
6 3 4 7 10 12 13 rings
6 7 12 15 19 20 22 rings

> <PUBCHEM_HEAVY_ATOM_COUNT>
23

> <PUBCHEM_ATOM_DEF_STEREO_COUNT>
5

> <PUBCHEM_ATOM_UDEF_STEREO_COUNT>
0

> <PUBCHEM_BOND_DEF_STEREO_COUNT>
0

> <PUBCHEM_BOND_UDEF_STEREO_COUNT>
1

> <PUBCHEM_ISOTOPIC_ATOM_COUNT>
0

> <PUBCHEM_COMPONENT_COUNT>
1

> <PUBCHEM_CACTVS_TAUTO_COUNT>
25

> <PUBCHEM_CONFORMER_ID>
00023DD200000001

> <PUBCHEM_MMFF94_ENERGY>
65.857

> <PUBCHEM_FEATURE_SELFOVERLAP>
35.62

> <PUBCHEM_SHAPE_FINGERPRINT>
10366900 7 18113615703026126465
10498660 4 18336261262758504741
12011746 2 18335419088501726591
12166972 35 17703509982089902473
12236239 1 17967814934098234298
12403259 415 18130782369733905265
12788726 201 18267022747773072488
13224815 77 18040715874475491699
13583140 156 16515405196653292681
13862211 1 18413669093805411510
13944108 23 16532552840693773997
14528608 73 18408319999220570022
14790565 3 18051141297601929816
15099037 51 18411418392943957519
15183329 4 18413105039960849893
15196674 1 18411698781320400429
15238133 3 18041828533288551824
15536298 74 18271520983207244736
1601671 61 18410293575690847676
16752209 62 18411413994897466121
16945 1 18266743673961940152
17349148 13 17274827977705182551
1813 80 13470408911324121179
18186145 218 18113609071844489061
18222031 100 18131625699141460250
18681886 176 18272082842349794512
19862831 5 18410858750310662928
200 152 17846497041302503985
20645477 70 18341891917944830228
20775438 99 17051574504265991175
20871999 31 18409169913177045174
21267235 1 18341336677784707335
21285901 2 18199755734898047852
221357 26 18341609330597944189
221490 88 18266744760324824426
22393880 68 18411410713811626629
23402539 116 18343580720238460300
23493267 7 17967537886726287354
23559900 14 18271237347735513593
2871803 45 18334571365021068580
296302 2 15502375638363393770
3004659 81 18261676970443132366
3286 77 16774074072725743658
335352 9 18340204077385965837
34934 24 18410008854077336552
350125 39 18411985737361468913
4214541 1 18412826871840029069
4280585 95 17407969790829269886
4340502 62 16298396720898179408
474 4 17240773938346219780
4921388 177 16515980253660585947
5104073 3 18411979161381099409
542803 24 18040435481825251879
59755656 215 18410852158031768527
9709674 26 18337951315499495635

> <PUBCHEM_SHAPE_MULTIPOLES>
461.59
11.32
2.1
1.17
0.56
0.44
-0.43
-0.85
4.99
0.19
-0.02
-0.06
-0.29
-0.18

> <PUBCHEM_SHAPE_SELFOVERLAP>
994.978

> <PUBCHEM_SHAPE_VOLUME>
252.6

> <PUBCHEM_COORDINATE_TYPE>
2
5
10

$$$$
