121418176
  -OEChem-02232406483D

 67 73  0     1  0  0  0  0  0999 V2000
   -2.8984    2.1892    1.2479 S   0  0  0  0  0  0  0  0  0  0  0  0
   -3.6405   -0.5794   -2.7629 F   0  0  0  0  0  0  0  0  0  0  0  0
   -0.5558   -0.7003    1.2560 F   0  0  0  0  0  0  0  0  0  0  0  0
    0.7427   -0.7671    3.0126 F   0  0  0  0  0  0  0  0  0  0  0  0
   -0.4927   -2.5043    2.5313 F   0  0  0  0  0  0  0  0  0  0  0  0
    2.3010    0.9971    0.1302 O   0  0  0  0  0  0  0  0  0  0  0  0
    5.5207   -2.0888    0.1276 O   0  0  0  0  0  0  0  0  0  0  0  0
    1.3170   -2.0120    1.2226 O   0  0  0  0  0  0  0  0  0  0  0  0
   -6.8558   -1.2427    2.2160 O   0  0  0  0  0  0  0  0  0  0  0  0
   -7.1823   -2.5087    0.3566 O   0  0  0  0  0  0  0  0  0  0  0  0
   -1.0414    3.2388   -0.3124 N   0  0  0  0  0  0  0  0  0  0  0  0
   -2.3575    1.4966   -1.1771 N   0  0  0  0  0  0  0  0  0  0  0  0
    4.3530   -2.7416   -0.2481 N   0  0  0  0  0  0  0  0  0  0  0  0
   -0.1689    3.3615   -1.4829 C   0  0  1  0  0  0  0  0  0  0  0  0
   -0.2442    3.6916    0.8303 C   0  0  2  0  0  0  0  0  0  0  0  0
    0.4823    4.7362   -1.2518 C   0  0  0  0  0  0  0  0  0  0  0  0
    0.4324    4.9530    0.2662 C   0  0  0  0  0  0  0  0  0  0  0  0
    0.8629    2.2198   -1.3994 C   0  0  0  0  0  0  0  0  0  0  0  0
    0.7807    2.5813    1.1348 C   0  0  0  0  0  0  0  0  0  0  0  0
    1.6635    2.2516   -0.0831 C   0  0  0  0  0  0  0  0  0  0  0  0
   -2.0188    2.3205   -0.2132 C   0  0  0  0  0  0  0  0  0  0  0  0
    6.3968    0.2828    0.3367 C   0  0  0  0  0  0  0  0  0  0  0  0
    7.5024   -0.0410    1.3140 C   0  0  0  0  0  0  0  0  0  0  0  0
    6.4335    0.9330    1.6999 C   0  0  0  0  0  0  0  0  0  0  0  0
    3.4437    0.8471   -0.7002 C   0  0  0  0  0  0  0  0  0  0  0  0
    5.3410   -0.7479    0.0138 C   0  0  0  0  0  0  0  0  0  0  0  0
    4.0720   -0.4891   -0.4321 C   0  0  0  0  0  0  0  0  0  0  0  0
   -3.8327    0.9142    0.5592 C   0  0  0  0  0  0  0  0  0  0  0  0
   -3.3967    0.6832   -0.7491 C   0  0  0  0  0  0  0  0  0  0  0  0
    3.5023   -1.7657   -0.5782 C   0  0  0  0  0  0  0  0  0  0  0  0
    2.1710   -2.0833   -1.0237 C   0  0  0  0  0  0  0  0  0  0  0  0
   -4.8762    0.1718    1.1351 C   0  0  0  0  0  0  0  0  0  0  0  0
   -4.0292   -0.3274   -1.5055 C   0  0  0  0  0  0  0  0  0  0  0  0
   -5.4851   -0.8223    0.3648 C   0  0  0  0  0  0  0  0  0  0  0  0
   -5.0686   -1.0704   -0.9384 C   0  0  0  0  0  0  0  0  0  0  0  0
    1.1197   -2.1971   -0.1141 C   0  0  0  0  0  0  0  0  0  0  0  0
    1.9393   -2.2780   -2.3852 C   0  0  0  0  0  0  0  0  0  0  0  0
   -0.1634   -2.5055   -0.5661 C   0  0  0  0  0  0  0  0  0  0  0  0
   -6.5689   -1.6068    0.9362 C   0  0  0  0  0  0  0  0  0  0  0  0
    0.6562   -2.5867   -2.8374 C   0  0  0  0  0  0  0  0  0  0  0  0
   -0.3951   -2.7003   -1.9278 C   0  0  0  0  0  0  0  0  0  0  0  0
    0.2380   -1.5031    1.9964 C   0  0  0  0  0  0  0  0  0  0  0  0
   -0.7173    3.3342   -2.4308 H   0  0  0  0  0  0  0  0  0  0  0  0
   -0.8231    3.9509    1.7225 H   0  0  0  0  0  0  0  0  0  0  0  0
   -0.1101    5.5169   -1.7443 H   0  0  0  0  0  0  0  0  0  0  0  0
    1.4992    4.7982   -1.6521 H   0  0  0  0  0  0  0  0  0  0  0  0
    1.4220    5.1347    0.6975 H   0  0  0  0  0  0  0  0  0  0  0  0
   -0.1836    5.8350    0.4806 H   0  0  0  0  0  0  0  0  0  0  0  0
    0.3674    1.2458   -1.5024 H   0  0  0  0  0  0  0  0  0  0  0  0
    1.5465    2.2976   -2.2530 H   0  0  0  0  0  0  0  0  0  0  0  0
    0.2692    1.6725    1.4728 H   0  0  0  0  0  0  0  0  0  0  0  0
    1.4243    2.8816    1.9712 H   0  0  0  0  0  0  0  0  0  0  0  0
    2.4319    3.0336   -0.1483 H   0  0  0  0  0  0  0  0  0  0  0  0
    6.6824    0.9085   -0.5040 H   0  0  0  0  0  0  0  0  0  0  0  0
    8.4902    0.3512    1.1033 H   0  0  0  0  0  0  0  0  0  0  0  0
    7.5031   -1.0055    1.8070 H   0  0  0  0  0  0  0  0  0  0  0  0
    5.7119    0.6200    2.4449 H   0  0  0  0  0  0  0  0  0  0  0  0
    6.6985    1.9822    1.7485 H   0  0  0  0  0  0  0  0  0  0  0  0
    4.1563    1.6545   -0.4983 H   0  0  0  0  0  0  0  0  0  0  0  0
    3.1665    0.8863   -1.7590 H   0  0  0  0  0  0  0  0  0  0  0  0
   -5.1773    0.3901    2.1549 H   0  0  0  0  0  0  0  0  0  0  0  0
   -5.5401   -1.8433   -1.5403 H   0  0  0  0  0  0  0  0  0  0  0  0
    2.7470   -2.1929   -3.1085 H   0  0  0  0  0  0  0  0  0  0  0  0
   -1.0044   -2.6456    0.1063 H   0  0  0  0  0  0  0  0  0  0  0  0
    0.4759   -2.7397   -3.8974 H   0  0  0  0  0  0  0  0  0  0  0  0
   -1.3925   -2.9484   -2.2793 H   0  0  0  0  0  0  0  0  0  0  0  0
   -7.5874   -1.7772    2.5923 H   0  0  0  0  0  0  0  0  0  0  0  0
  1 21  1  0  0  0  0
  1 28  1  0  0  0  0
  2 33  1  0  0  0  0
  3 42  1  0  0  0  0
  4 42  1  0  0  0  0
  5 42  1  0  0  0  0
  6 20  1  0  0  0  0
  6 25  1  0  0  0  0
  7 13  1  0  0  0  0
  7 26  1  0  0  0  0
  8 36  1  0  0  0  0
  8 42  1  0  0  0  0
  9 39  1  0  0  0  0
  9 67  1  0  0  0  0
 10 39  2  0  0  0  0
 11 14  1  0  0  0  0
 11 15  1  0  0  0  0
 11 21  1  0  0  0  0
 12 21  2  0  0  0  0
 12 29  1  0  0  0  0
 13 30  2  0  0  0  0
 14 16  1  0  0  0  0
 14 18  1  0  0  0  0
 14 43  1  0  0  0  0
 15 17  1  0  0  0  0
 15 19  1  0  0  0  0
 15 44  1  0  0  0  0
 16 17  1  0  0  0  0
 16 45  1  0  0  0  0
 16 46  1  0  0  0  0
 17 47  1  0  0  0  0
 17 48  1  0  0  0  0
 18 20  1  0  0  0  0
 18 49  1  0  0  0  0
 18 50  1  0  0  0  0
 19 20  1  0  0  0  0
 19 51  1  0  0  0  0
 19 52  1  0  0  0  0
 20 53  1  0  0  0  0
 22 23  1  0  0  0  0
 22 24  1  0  0  0  0
 22 26  1  0  0  0  0
 22 54  1  0  0  0  0
 23 24  1  0  0  0  0
 23 55  1  0  0  0  0
 23 56  1  0  0  0  0
 24 57  1  0  0  0  0
 24 58  1  0  0  0  0
 25 27  1  0  0  0  0
 25 59  1  0  0  0  0
 25 60  1  0  0  0  0
 26 27  2  0  0  0  0
 27 30  1  0  0  0  0
 28 29  1  0  0  0  0
 28 32  2  0  0  0  0
 29 33  2  0  0  0  0
 30 31  1  0  0  0  0
 31 36  1  0  0  0  0
 31 37  2  0  0  0  0
 32 34  1  0  0  0  0
 32 61  1  0  0  0  0
 33 35  1  0  0  0  0
 34 35  2  0  0  0  0
 34 39  1  0  0  0  0
 35 62  1  0  0  0  0
 36 38  2  0  0  0  0
 37 40  1  0  0  0  0
 37 63  1  0  0  0  0
 38 41  1  0  0  0  0
 38 64  1  0  0  0  0
 40 41  2  0  0  0  0
 40 65  1  0  0  0  0
 41 66  1  0  0  0  0
M  END
> <PUBCHEM_COMPOUND_CID>
121418176

> <PUBCHEM_CONFORMER_RMSD>
1.2

> <PUBCHEM_CONFORMER_DIVERSEORDER>
1
50
13
24
61
35
43
22
48
40
56
47
49
36
10
33
46
57
31
52
58
4
9
41
37
51
63
38
44
45
55
3
23
59
53
42
28
39
17
7
60
32
2
34
20
25
19
54
21
15
29
27
62
16
64
5
11
26
8
30
14
18
6
12

> <PUBCHEM_MMFF94_PARTIAL_CHARGES>
50
1 -0.08
10 -0.57
11 -0.82
12 -0.57
13 -0.41
14 0.37
15 0.37
2 -0.19
20 0.28
21 0.46
22 -0.01
23 -0.2
24 -0.2
25 0.46
26 0.05
27 -0.18
28 0.04
29 0.23
3 -0.34
30 0.23
31 0.05
32 -0.15
33 0.19
34 0.09
35 -0.15
36 0.08
37 -0.15
38 -0.15
39 0.63
4 -0.34
40 -0.15
41 -0.15
42 1.3
5 -0.34
54 0.1
55 0.1
56 0.1
57 0.1
58 0.1
6 -0.56
61 0.15
62 0.15
63 0.15
64 0.15
65 0.15
66 0.15
67 0.5
7 -0.02
8 -0.36
9 -0.65

> <PUBCHEM_EFFECTIVE_ROTOR_COUNT>
10.8

> <PUBCHEM_PHARMACOPHORE_FEATURES>
12
1 10 acceptor
1 13 acceptor
1 6 acceptor
1 8 acceptor
1 9 acceptor
3 11 12 21 cation
3 9 10 39 anion
5 1 12 21 28 29 rings
5 7 13 26 27 30 rings
6 28 29 32 33 34 35 rings
6 31 36 37 38 40 41 rings
8 11 14 15 16 17 18 19 20 rings

> <PUBCHEM_HEAVY_ATOM_COUNT>
42

> <PUBCHEM_ATOM_DEF_STEREO_COUNT>
2

> <PUBCHEM_ATOM_UDEF_STEREO_COUNT>
0

> <PUBCHEM_BOND_DEF_STEREO_COUNT>
0

> <PUBCHEM_BOND_UDEF_STEREO_COUNT>
0

> <PUBCHEM_ISOTOPIC_ATOM_COUNT>
0

> <PUBCHEM_COMPONENT_COUNT>
1

> <PUBCHEM_CACTVS_TAUTO_COUNT>
1

> <PUBCHEM_CONFORMER_ID>
073CB1C000000001

> <PUBCHEM_MMFF94_ENERGY>
118.1559

> <PUBCHEM_FEATURE_SELFOVERLAP>
61.029

> <PUBCHEM_SHAPE_FINGERPRINT>
10930396 42 18042663149199702200
11578080 2 17272834649703853226
11828532 37 17605571057372435339
12106331 60 18263916645284273714
12156800 1 16620922238983398713
12166972 35 17385734585927883039
13947930 73 17750524051422135843
14028597 1 17677032574494954946
14394314 77 18342739581043608753
15968369 153 18343584075383514900
19315092 285 16951110781920230779
20764821 26 17898607264944753858
21796203 349 18267043797455061280
25019877 29 17418375813523283886
392239 28 18188219675673011299
463206 1 18410301315322128917
50677037 204 18129924785055626982
5309563 4 18410860949634793781
6004065 56 18338237184080323544

> <PUBCHEM_SHAPE_MULTIPOLES>
794.81
14.26
5.27
2.3
0.86
5.37
-0.08
-8.36
-6.84
-0.19
1.65
0.68
-1.17
1.04

> <PUBCHEM_SHAPE_SELFOVERLAP>
1753.95

> <PUBCHEM_SHAPE_VOLUME>
433.2

> <PUBCHEM_COORDINATE_TYPE>
2
5
10

$$$$
